%NProcShared=6
%mem=5GB
%chk=Gauss/antidiabetic/some_name.chk
# PM6 Opt

Title Card

0  1
C           1.48283        -0.56685        -0.96765
C           2.52413         0.09991        -0.07144
O           3.71950         0.25703        -0.83554
C           2.83268        -0.63946         1.21315
C           3.21891         0.09418         2.34683
C           3.51716        -0.54986         3.55025
C           3.44496        -1.93712         3.63571
C           3.08471        -2.68151         2.51454
C           2.78801        -2.03896         1.31046
H           0.55109        -0.75875        -0.42716
H           1.85340        -1.51058        -1.38267
H           1.26234         0.07359        -1.82854
H           2.15678         1.10352         0.16974
H           4.33664        -0.44123        -0.55830
H           3.29048         1.17921         2.29976
H           3.80514         0.03168         4.42265
H           3.67035        -2.44080         4.57184
H           3.03537        -3.76599         2.57581
H           2.52025        -2.65086         0.45283

